<?xml version="1.0" encoding="UTF-8"?>

<!-- generated on 2022年10月26日 星期三 21时49分52秒 by Eclipse SUMO netedit Version 1.8.0
<configuration xmlns:xsi="http://www.w3.org/2001/XMLSchema-instance" xsi:noNamespaceSchemaLocation="http://sumo.dlr.de/xsd/netconvertConfiguration.xsd">

    <input>
        <sumo-net-file value="/home/kai/Vscode/RL_Decision_Making/road/intersection_.net.xml"/>
    </input>

    <output>
        <output-file value="/home/kai/Vscode/RL_Decision_Making/road/intersection_.net.xml"/>
    </output>

    <processing>
        <geometry.min-radius.fix.railways value="false"/>
        <geometry.max-grade.fix value="false"/>
        <offset.disable-normalization value="true"/>
        <lefthand value="false"/>
    </processing>

    <junctions>
        <no-internal-links value="false"/>
        <no-turnarounds value="true"/>
        <junctions.corner-detail value="5"/>
        <junctions.limit-turn-speed value="5.5"/>
        <rectangular-lane-cut value="false"/>
    </junctions>

    <pedestrian>
        <walkingareas value="false"/>
    </pedestrian>

    <report>
        <aggregate-warnings value="5"/>
    </report>

</configuration>
-->

<net version="1.6" junctionCornerDetail="5" limitTurnSpeed="5.50" xmlns:xsi="http://www.w3.org/2001/XMLSchema-instance" xsi:noNamespaceSchemaLocation="http://sumo.dlr.de/xsd/net_file.xsd">

    <location netOffset="4000.00,4000.00" convBoundary="0.00,0.00,8000.00,8000.00" origBoundary="-4000.00,-4000.00,4000.00,4000.00" projParameter="!"/>

    <edge id=":0_0" function="internal">
        <lane id=":0_0_0" index="0" allow="moped bicycle" speed="100.00" length="0.10" width="3.20" shape="3800.00,4008.00 3800.00,4008.00"/>
        <lane id=":0_0_1" index="1" disallow="pedestrian" speed="100.00" length="0.10" width="3.20" shape="3800.00,4004.80 3800.00,4004.80"/>
        <lane id=":0_0_2" index="2" disallow="pedestrian" speed="100.00" length="0.10" width="3.20" shape="3800.00,4001.60 3800.00,4001.60">
            <neigh lane=":0_3_2"/>
        </lane>
    </edge>
    <edge id=":0_3" function="internal">
        <lane id=":0_3_0" index="0" allow="moped bicycle" speed="100.00" length="0.10" width="3.20" shape="3800.00,3992.00 3800.00,3992.00"/>
        <lane id=":0_3_1" index="1" disallow="pedestrian" speed="100.00" length="0.10" width="3.20" shape="3800.00,3995.20 3800.00,3995.20"/>
        <lane id=":0_3_2" index="2" disallow="pedestrian" speed="100.00" length="0.10" width="3.20" shape="3800.00,3998.40 3800.00,3998.40">
            <neigh lane=":0_0_2"/>
        </lane>
    </edge>
    <edge id=":0_w0" function="walkingarea">
        <lane id=":0_w0_0" index="0" allow="pedestrian" speed="1.00" length="0.10" width="2.00" shape="3800.00,4009.60 3800.00,4011.60 3800.00,4011.60 3800.00,4009.60"/>
    </edge>
    <edge id=":0_w1" function="walkingarea">
        <lane id=":0_w1_0" index="0" allow="pedestrian" speed="1.00" length="0.10" width="2.00" shape="3800.00,3990.40 3800.00,3988.40 3800.00,3988.40 3800.00,3990.40"/>
    </edge>
    <edge id=":1_0" function="internal">
        <lane id=":1_0_0" index="0" allow="moped bicycle" speed="6.51" length="4.75" width="3.20" shape="3995.20,4013.60 3994.85,4011.15 3993.80,4009.40 3993.60,4009.28"/>
    </edge>
    <edge id=":1_1" function="internal">
        <lane id=":1_1_0" index="0" allow="moped bicycle" speed="100.00" length="27.20" width="3.20" shape="3995.20,4013.60 3995.20,3986.40"/>
    </edge>
    <edge id=":1_2" function="internal">
        <lane id=":1_2_0" index="0" allow="moped bicycle" speed="10.60" length="9.41" width="3.20" shape="3995.20,4013.60 3996.51,4007.37 3998.03,4004.73"/>
    </edge>
    <edge id=":1_3" function="internal">
        <lane id=":1_3_0" index="0" disallow="pedestrian" speed="8.00" length="10.13" width="3.20" shape="3998.40,4013.60 3997.85,4009.75 3996.20,4007.00 3993.60,4005.44"/>
    </edge>
    <edge id=":1_4" function="internal">
        <lane id=":1_4_0" index="0" disallow="pedestrian" speed="100.00" length="27.20" width="3.20" shape="3998.40,4013.60 3998.40,3986.40">
            <neigh lane=":1_17_0"/>
        </lane>
    </edge>
    <edge id=":1_5" function="internal">
        <lane id=":1_5_0" index="0" disallow="pedestrian" speed="9.58" length="5.20" width="3.20" shape="3998.40,4013.60 3999.43,4008.50"/>
    </edge>
    <edge id=":1_26" function="internal">
        <lane id=":1_26_0" index="0" allow="moped bicycle" speed="6.51" length="4.28" width="3.20" shape="3993.60,4009.28 3992.05,4008.35 3989.60,4008.00"/>
    </edge>
    <edge id=":1_27" function="internal">
        <lane id=":1_27_0" index="0" allow="moped bicycle" speed="10.60" length="16.29" width="3.20" shape="3998.03,4004.73 3999.95,4001.42 4004.82,3996.96 4010.40,3995.20"/>
    </edge>
    <edge id=":1_28" function="internal">
        <lane id=":1_28_0" index="0" disallow="pedestrian" speed="8.00" length="4.06" width="3.20" shape="3993.60,4005.44 3993.45,4005.35 3989.60,4004.80"/>
    </edge>
    <edge id=":1_29" function="internal">
        <lane id=":1_29_0" index="0" disallow="pedestrian" speed="9.58" length="15.61" width="3.20" shape="3999.43,4008.50 4002.15,4003.58 4005.99,3999.87 4010.40,3998.40"/>
    </edge>
    <edge id=":1_6" function="internal">
        <lane id=":1_6_0" index="0" allow="moped bicycle" speed="6.51" length="4.75" width="3.20" shape="4010.40,4008.00 4007.95,4008.35 4006.20,4009.40 4006.08,4009.60"/>
    </edge>
    <edge id=":1_7" function="internal">
        <lane id=":1_7_0" index="0" allow="moped bicycle" speed="100.00" length="20.80" width="3.20" shape="4010.40,4008.00 3989.60,4008.00"/>
    </edge>
    <edge id=":1_8" function="internal">
        <lane id=":1_8_0" index="0" allow="moped bicycle" speed="11.09" length="5.79" width="3.20" shape="4010.40,4008.00 4004.99,4005.93"/>
    </edge>
    <edge id=":1_9" function="internal">
        <lane id=":1_9_0" index="0" disallow="pedestrian" speed="8.00" length="10.13" width="3.20" shape="4010.40,4004.80 4006.55,4005.35 4003.80,4007.00 4002.24,4009.60"/>
    </edge>
    <edge id=":1_10" function="internal">
        <lane id=":1_10_0" index="0" disallow="pedestrian" speed="100.00" length="20.80" width="3.20" shape="4010.40,4004.80 3989.60,4004.80"/>
        <lane id=":1_10_1" index="1" disallow="pedestrian" speed="100.00" length="20.80" width="3.20" shape="4010.40,4001.60 3989.60,4001.60">
            <neigh lane=":1_23_1"/>
        </lane>
    </edge>
    <edge id=":1_12" function="internal">
        <lane id=":1_12_0" index="0" disallow="pedestrian" speed="9.58" length="3.23" width="3.20" shape="4010.40,4001.60 4007.34,4000.58"/>
    </edge>
    <edge id=":1_30" function="internal">
        <lane id=":1_30_0" index="0" allow="moped bicycle" speed="6.51" length="4.28" width="3.20" shape="4006.08,4009.60 4005.15,4011.15 4004.80,4013.60"/>
    </edge>
    <edge id=":1_31" function="internal">
        <lane id=":1_31_0" index="0" allow="moped bicycle" speed="11.09" length="22.45" width="3.20" shape="4004.99,4005.93 4004.82,4005.86 3999.95,4000.50 3996.51,3993.49 3995.20,3986.40"/>
    </edge>
    <edge id=":1_32" function="internal">
        <lane id=":1_32_0" index="0" disallow="pedestrian" speed="8.00" length="4.06" width="3.20" shape="4002.24,4009.60 4002.15,4009.75 4001.60,4013.60"/>
    </edge>
    <edge id=":1_33" function="internal">
        <lane id=":1_33_0" index="0" disallow="pedestrian" speed="9.58" length="17.58" width="3.20" shape="4007.34,4000.58 4005.99,4000.13 4002.15,3996.42 3999.43,3991.50 3998.40,3986.40"/>
    </edge>
    <edge id=":1_13" function="internal">
        <lane id=":1_13_0" index="0" allow="moped bicycle" speed="6.51" length="4.75" width="3.20" shape="4004.80,3986.40 4005.15,3988.85 4006.20,3990.60 4006.40,3990.72"/>
    </edge>
    <edge id=":1_14" function="internal">
        <lane id=":1_14_0" index="0" allow="moped bicycle" speed="100.00" length="27.20" width="3.20" shape="4004.80,3986.40 4004.80,4013.60"/>
    </edge>
    <edge id=":1_15" function="internal">
        <lane id=":1_15_0" index="0" allow="moped bicycle" speed="10.60" length="9.41" width="3.20" shape="4004.80,3986.40 4003.49,3992.63 4001.97,3995.27"/>
    </edge>
    <edge id=":1_16" function="internal">
        <lane id=":1_16_0" index="0" disallow="pedestrian" speed="8.00" length="10.13" width="3.20" shape="4001.60,3986.40 4002.15,3990.25 4003.80,3993.00 4006.40,3994.56"/>
    </edge>
    <edge id=":1_17" function="internal">
        <lane id=":1_17_0" index="0" disallow="pedestrian" speed="100.00" length="27.20" width="3.20" shape="4001.60,3986.40 4001.60,4013.60">
            <neigh lane=":1_4_0"/>
        </lane>
    </edge>
    <edge id=":1_18" function="internal">
        <lane id=":1_18_0" index="0" disallow="pedestrian" speed="9.58" length="5.20" width="3.20" shape="4001.60,3986.40 4000.57,3991.50"/>
    </edge>
    <edge id=":1_34" function="internal">
        <lane id=":1_34_0" index="0" allow="moped bicycle" speed="6.51" length="4.28" width="3.20" shape="4006.40,3990.72 4007.95,3991.65 4010.40,3992.00"/>
    </edge>
    <edge id=":1_35" function="internal">
        <lane id=":1_35_0" index="0" allow="moped bicycle" speed="10.60" length="16.29" width="3.20" shape="4001.97,3995.27 4000.05,3998.58 3995.18,4003.04 3989.60,4004.80"/>
    </edge>
    <edge id=":1_36" function="internal">
        <lane id=":1_36_0" index="0" disallow="pedestrian" speed="8.00" length="4.06" width="3.20" shape="4006.40,3994.56 4006.55,3994.65 4010.40,3995.20"/>
    </edge>
    <edge id=":1_37" function="internal">
        <lane id=":1_37_0" index="0" disallow="pedestrian" speed="9.58" length="15.61" width="3.20" shape="4000.57,3991.50 3997.85,3996.42 3994.01,4000.13 3989.60,4001.60"/>
    </edge>
    <edge id=":1_19" function="internal">
        <lane id=":1_19_0" index="0" allow="moped bicycle" speed="6.51" length="4.75" width="3.20" shape="3989.60,3992.00 3992.05,3991.65 3993.80,3990.60 3993.92,3990.40"/>
    </edge>
    <edge id=":1_20" function="internal">
        <lane id=":1_20_0" index="0" allow="moped bicycle" speed="100.00" length="20.80" width="3.20" shape="3989.60,3992.00 4010.40,3992.00"/>
    </edge>
    <edge id=":1_21" function="internal">
        <lane id=":1_21_0" index="0" allow="moped bicycle" speed="11.09" length="5.79" width="3.20" shape="3989.60,3992.00 3995.01,3994.07"/>
    </edge>
    <edge id=":1_22" function="internal">
        <lane id=":1_22_0" index="0" disallow="pedestrian" speed="8.00" length="5.93" width="3.20" shape="3989.60,3995.20 3993.45,3994.65 3995.20,3993.60"/>
    </edge>
    <edge id=":1_23" function="internal">
        <lane id=":1_23_0" index="0" disallow="pedestrian" speed="100.00" length="20.80" width="3.20" shape="3989.60,3995.20 4010.40,3995.20"/>
        <lane id=":1_23_1" index="1" disallow="pedestrian" speed="100.00" length="20.80" width="3.20" shape="3989.60,3998.40 4010.40,3998.40">
            <neigh lane=":1_10_1"/>
        </lane>
    </edge>
    <edge id=":1_25" function="internal">
        <lane id=":1_25_0" index="0" disallow="pedestrian" speed="9.58" length="3.23" width="3.20" shape="3989.60,3998.40 3992.66,3999.42"/>
    </edge>
    <edge id=":1_38" function="internal">
        <lane id=":1_38_0" index="0" allow="moped bicycle" speed="6.51" length="4.28" width="3.20" shape="3993.92,3990.40 3994.85,3988.85 3995.20,3986.40"/>
    </edge>
    <edge id=":1_39" function="internal">
        <lane id=":1_39_0" index="0" allow="moped bicycle" speed="11.09" length="22.45" width="3.20" shape="3995.01,3994.07 3995.18,3994.14 4000.05,3999.50 4003.49,4006.51 4004.80,4013.60"/>
    </edge>
    <edge id=":1_40" function="internal">
        <lane id=":1_40_0" index="0" disallow="pedestrian" speed="8.00" length="8.26" width="3.20" shape="3995.20,3993.60 3996.20,3993.00 3997.85,3990.25 3998.40,3986.40"/>
    </edge>
    <edge id=":1_41" function="internal">
        <lane id=":1_41_0" index="0" disallow="pedestrian" speed="9.58" length="17.58" width="3.20" shape="3992.66,3999.42 3994.01,3999.87 3997.85,4003.58 4000.57,4008.50 4001.60,4013.60"/>
    </edge>
    <edge id=":1_c0" function="crossing" crossingEdges="L14 L41">
        <lane id=":1_c0_0" index="0" allow="pedestrian" speed="1.00" length="12.80" width="4.00" shape="4006.40,4011.60 3993.60,4011.60"/>
    </edge>
    <edge id=":1_c1" function="crossing" crossingEdges="L12 L21">
        <lane id=":1_c1_0" index="0" allow="pedestrian" speed="1.00" length="19.20" width="4.00" shape="4008.40,3990.40 4008.40,4009.60"/>
    </edge>
    <edge id=":1_c2" function="crossing" crossingEdges="L13 L31">
        <lane id=":1_c2_0" index="0" allow="pedestrian" speed="1.00" length="12.80" width="4.00" shape="3993.60,3988.40 4006.40,3988.40"/>
    </edge>
    <edge id=":1_c3" function="crossing" crossingEdges="L10 L01">
        <lane id=":1_c3_0" index="0" allow="pedestrian" speed="1.00" length="19.20" width="4.00" shape="3991.60,4009.60 3991.60,3990.40"/>
    </edge>
    <edge id=":1_w0" function="walkingarea">
        <lane id=":1_w0_0" index="0" allow="pedestrian" speed="1.00" length="3.30" width="4.00" shape="3989.60,4009.60 3989.60,4011.60 3991.60,4013.60 3993.60,4013.60 3993.49,4012.38 3993.16,4011.38 3992.60,4010.60 3991.82,4010.04 3990.82,4009.71"/>
    </edge>
    <edge id=":1_w1" function="walkingarea">
        <lane id=":1_w1_0" index="0" allow="pedestrian" speed="1.00" length="3.30" width="4.00" shape="4006.40,4013.60 4008.40,4013.60 4010.40,4011.60 4010.40,4009.60 4009.18,4009.71 4008.18,4010.04 4007.40,4010.60 4006.84,4011.38 4006.51,4012.38"/>
    </edge>
    <edge id=":1_w2" function="walkingarea">
        <lane id=":1_w2_0" index="0" allow="pedestrian" speed="1.00" length="3.30" width="4.00" shape="4010.40,3990.40 4010.40,3988.40 4008.40,3986.40 4006.40,3986.40 4006.51,3987.62 4006.84,3988.62 4007.40,3989.40 4008.18,3989.96 4009.18,3990.29"/>
    </edge>
    <edge id=":1_w3" function="walkingarea">
        <lane id=":1_w3_0" index="0" allow="pedestrian" speed="1.00" length="3.30" width="4.00" shape="3993.60,3986.40 3991.60,3986.40 3989.60,3988.40 3989.60,3990.40 3990.82,3990.29 3991.82,3989.96 3992.60,3989.40 3993.16,3988.62 3993.49,3987.62"/>
    </edge>
    <edge id=":2_0" function="internal">
        <lane id=":2_0_0" index="0" allow="moped bicycle" speed="100.00" length="0.10" width="3.20" shape="4200.00,4008.00 4200.00,4008.00"/>
        <lane id=":2_0_1" index="1" disallow="pedestrian" speed="100.00" length="0.10" width="3.20" shape="4200.00,4004.80 4200.00,4004.80"/>
        <lane id=":2_0_2" index="2" disallow="pedestrian" speed="100.00" length="0.10" width="3.20" shape="4200.00,4001.60 4200.00,4001.60">
            <neigh lane=":2_3_2"/>
        </lane>
    </edge>
    <edge id=":2_3" function="internal">
        <lane id=":2_3_0" index="0" allow="moped bicycle" speed="100.00" length="0.10" width="3.20" shape="4200.00,3992.00 4200.00,3992.00"/>
        <lane id=":2_3_1" index="1" disallow="pedestrian" speed="100.00" length="0.10" width="3.20" shape="4200.00,3995.20 4200.00,3995.20"/>
        <lane id=":2_3_2" index="2" disallow="pedestrian" speed="100.00" length="0.10" width="3.20" shape="4200.00,3998.40 4200.00,3998.40">
            <neigh lane=":2_0_2"/>
        </lane>
    </edge>
    <edge id=":2_w0" function="walkingarea">
        <lane id=":2_w0_0" index="0" allow="pedestrian" speed="1.00" length="0.10" width="2.00" shape="4200.00,4009.60 4200.00,4011.60 4200.00,4011.60 4200.00,4009.60"/>
    </edge>
    <edge id=":2_w1" function="walkingarea">
        <lane id=":2_w1_0" index="0" allow="pedestrian" speed="1.00" length="0.10" width="2.00" shape="4200.00,3990.40 4200.00,3988.40 4200.00,3988.40 4200.00,3990.40"/>
    </edge>
    <edge id=":3_0" function="internal">
        <lane id=":3_0_0" index="0" allow="moped bicycle" speed="100.00" length="0.10" width="3.20" shape="3995.20,3785.00 3995.20,3785.00"/>
        <lane id=":3_0_1" index="1" disallow="pedestrian" speed="100.00" length="0.10" width="3.20" shape="3998.40,3785.00 3998.40,3785.00">
            <neigh lane=":3_2_1"/>
        </lane>
    </edge>
    <edge id=":3_2" function="internal">
        <lane id=":3_2_0" index="0" allow="moped bicycle" speed="100.00" length="0.10" width="3.20" shape="4004.80,3785.00 4004.80,3785.00"/>
        <lane id=":3_2_1" index="1" disallow="pedestrian" speed="100.00" length="0.10" width="3.20" shape="4001.60,3785.00 4001.60,3785.00">
            <neigh lane=":3_0_1"/>
        </lane>
    </edge>
    <edge id=":3_w0" function="walkingarea">
        <lane id=":3_w0_0" index="0" allow="pedestrian" speed="1.00" length="0.10" width="2.00" shape="3993.60,3785.00 3991.60,3785.00 3991.60,3785.00 3993.60,3785.00"/>
    </edge>
    <edge id=":3_w1" function="walkingarea">
        <lane id=":3_w1_0" index="0" allow="pedestrian" speed="1.00" length="0.10" width="2.00" shape="4006.40,3785.00 4008.40,3785.00 4008.40,3785.00 4006.40,3785.00"/>
    </edge>
    <edge id=":4_0" function="internal">
        <lane id=":4_0_0" index="0" allow="moped bicycle" speed="100.00" length="0.10" width="3.20" shape="3995.20,4200.00 3995.20,4200.00"/>
        <lane id=":4_0_1" index="1" disallow="pedestrian motorcycle moped bicycle" speed="100.00" length="0.10" width="3.20" shape="3998.40,4200.00 3998.40,4200.00">
            <neigh lane=":4_2_1"/>
        </lane>
    </edge>
    <edge id=":4_2" function="internal">
        <lane id=":4_2_0" index="0" allow="moped bicycle" speed="100.00" length="0.10" width="3.20" shape="4004.80,4200.00 4004.80,4200.00"/>
        <lane id=":4_2_1" index="1" disallow="pedestrian motorcycle moped bicycle" speed="100.00" length="0.10" width="3.20" shape="4001.60,4200.00 4001.60,4200.00">
            <neigh lane=":4_0_1"/>
        </lane>
    </edge>
    <edge id=":4_w0" function="walkingarea">
        <lane id=":4_w0_0" index="0" allow="pedestrian" speed="1.00" length="0.10" width="2.00" shape="3993.60,4200.00 3991.60,4200.00 3991.60,4200.00 3993.60,4200.00"/>
    </edge>
    <edge id=":4_w1" function="walkingarea">
        <lane id=":4_w1_0" index="0" allow="pedestrian" speed="1.00" length="0.10" width="2.00" shape="4006.40,4200.00 4008.40,4200.00 4008.40,4200.00 4006.40,4200.00"/>
    </edge>
    <edge id=":5_0" function="internal">
        <lane id=":5_0_0" index="0" disallow="pedestrian" speed="3.65" length="4.67" width="3.20" shape="0.00,4001.60 -1.20,4000.80 -1.60,4000.00 -1.20,3999.20 0.00,3998.40"/>
    </edge>
    <edge id=":5_w0" function="walkingarea">
        <lane id=":5_w0_0" index="0" allow="pedestrian" speed="1.00" length="21.20" width="2.00" shape="0.00,3990.40 0.00,3988.40 0.00,4011.60 0.00,4009.60"/>
    </edge>
    <edge id=":6_0" function="internal">
        <lane id=":6_0_0" index="0" disallow="pedestrian" speed="3.65" length="4.67" width="3.20" shape="8000.00,3998.40 8001.20,3999.20 8001.60,4000.00 8001.20,4000.80 8000.00,4001.60"/>
    </edge>
    <edge id=":6_w0" function="walkingarea">
        <lane id=":6_w0_0" index="0" allow="pedestrian" speed="1.00" length="21.20" width="2.00" shape="8000.00,4009.60 8000.00,4011.60 8000.00,3988.40 8000.00,3990.40"/>
    </edge>
    <edge id=":7_0" function="internal">
        <lane id=":7_0_0" index="0" disallow="pedestrian" speed="3.65" length="4.67" width="3.20" shape="3998.40,0.00 3999.20,-1.20 4000.00,-1.60 4000.80,-1.20 4001.60,0.00"/>
    </edge>
    <edge id=":7_w0" function="walkingarea">
        <lane id=":7_w0_0" index="0" allow="pedestrian" speed="1.00" length="14.80" width="2.00" shape="4006.40,0.00 4008.40,0.00 3991.60,0.00 3993.60,0.00"/>
    </edge>
    <edge id=":8_0" function="internal">
        <lane id=":8_0_0" index="0" disallow="pedestrian motorcycle moped bicycle" speed="3.65" length="4.67" width="3.20" shape="4001.60,8000.00 4000.80,8001.20 4000.00,8001.60 3999.20,8001.20 3998.40,8000.00"/>
    </edge>
    <edge id=":8_w0" function="walkingarea">
        <lane id=":8_w0_0" index="0" allow="pedestrian" speed="1.00" length="14.80" width="2.00" shape="3993.60,8000.00 3991.60,8000.00 4008.40,8000.00 4006.40,8000.00"/>
    </edge>

    <edge id="L01" from="0" to="1" priority="5">
        <lane id="L01_0" index="0" allow="pedestrian" speed="100.00" length="189.60" width="2.00" shape="3800.00,3989.40 3989.60,3989.40"/>
        <lane id="L01_1" index="1" allow="moped bicycle" speed="100.00" length="189.60" width="3.20" shape="3800.00,3992.00 3989.60,3992.00"/>
        <lane id="L01_2" index="2" disallow="pedestrian" speed="100.00" length="189.60" width="3.20" shape="3800.00,3995.20 3989.60,3995.20"/>
        <lane id="L01_3" index="3" disallow="pedestrian" speed="100.00" length="189.60" width="3.20" shape="3800.00,3998.40 3989.60,3998.40">
            <neigh lane="L10_3"/>
        </lane>
    </edge>
    <edge id="L05" from="0" to="5" priority="5">
        <lane id="L05_0" index="0" allow="pedestrian" speed="100.00" length="3800.00" width="2.00" shape="3800.00,4010.60 0.00,4010.60"/>
        <lane id="L05_1" index="1" allow="moped bicycle" speed="100.00" length="3800.00" width="3.20" shape="3800.00,4008.00 0.00,4008.00"/>
        <lane id="L05_2" index="2" disallow="pedestrian" speed="100.00" length="3800.00" width="3.20" shape="3800.00,4004.80 0.00,4004.80"/>
        <lane id="L05_3" index="3" disallow="pedestrian" speed="100.00" length="3800.00" width="3.20" shape="3800.00,4001.60 0.00,4001.60">
            <neigh lane="L50_3"/>
        </lane>
    </edge>
    <edge id="L10" from="1" to="0" priority="5">
        <lane id="L10_0" index="0" allow="pedestrian" speed="100.00" length="189.60" width="2.00" shape="3989.60,4010.60 3800.00,4010.60"/>
        <lane id="L10_1" index="1" allow="moped bicycle" speed="100.00" length="189.60" width="3.20" shape="3989.60,4008.00 3800.00,4008.00"/>
        <lane id="L10_2" index="2" disallow="pedestrian" speed="100.00" length="189.60" width="3.20" shape="3989.60,4004.80 3800.00,4004.80"/>
        <lane id="L10_3" index="3" disallow="pedestrian" speed="100.00" length="189.60" width="3.20" shape="3989.60,4001.60 3800.00,4001.60">
            <neigh lane="L01_3"/>
        </lane>
    </edge>
    <edge id="L12" from="1" to="2" priority="5">
        <lane id="L12_0" index="0" allow="pedestrian" speed="100.00" length="189.60" width="2.00" shape="4010.40,3989.40 4200.00,3989.40"/>
        <lane id="L12_1" index="1" allow="moped bicycle" speed="100.00" length="189.60" width="3.20" shape="4010.40,3992.00 4200.00,3992.00"/>
        <lane id="L12_2" index="2" disallow="pedestrian" speed="100.00" length="189.60" width="3.20" shape="4010.40,3995.20 4200.00,3995.20"/>
        <lane id="L12_3" index="3" disallow="pedestrian" speed="100.00" length="189.60" width="3.20" shape="4010.40,3998.40 4200.00,3998.40">
            <neigh lane="L21_3"/>
        </lane>
    </edge>
    <edge id="L13" from="1" to="3" priority="3">
        <lane id="L13_0" index="0" allow="pedestrian" speed="100.00" length="201.40" width="2.00" shape="3992.60,3986.40 3992.60,3785.00"/>
        <lane id="L13_1" index="1" allow="moped bicycle" speed="100.00" length="201.40" width="3.20" shape="3995.20,3986.40 3995.20,3785.00"/>
        <lane id="L13_2" index="2" disallow="pedestrian" speed="100.00" length="201.40" width="3.20" shape="3998.40,3986.40 3998.40,3785.00">
            <neigh lane="L31_2"/>
        </lane>
    </edge>
    <edge id="L14" from="1" to="4" priority="3">
        <lane id="L14_0" index="0" allow="pedestrian" speed="100.00" length="186.40" width="2.00" shape="4007.40,4013.60 4007.40,4200.00"/>
        <lane id="L14_1" index="1" allow="moped bicycle" speed="100.00" length="186.40" width="3.20" shape="4004.80,4013.60 4004.80,4200.00"/>
        <lane id="L14_2" index="2" disallow="pedestrian" speed="100.00" length="186.40" width="3.20" shape="4001.60,4013.60 4001.60,4200.00">
            <neigh lane="L41_2"/>
        </lane>
    </edge>
    <edge id="L21" from="2" to="1" priority="5">
        <lane id="L21_0" index="0" allow="pedestrian" speed="100.00" length="189.60" width="2.00" shape="4200.00,4010.60 4010.40,4010.60"/>
        <lane id="L21_1" index="1" allow="moped bicycle" speed="100.00" length="189.60" width="3.20" shape="4200.00,4008.00 4010.40,4008.00"/>
        <lane id="L21_2" index="2" disallow="pedestrian" speed="100.00" length="189.60" width="3.20" shape="4200.00,4004.80 4010.40,4004.80"/>
        <lane id="L21_3" index="3" disallow="pedestrian" speed="100.00" length="189.60" width="3.20" shape="4200.00,4001.60 4010.40,4001.60">
            <neigh lane="L12_3"/>
        </lane>
    </edge>
    <edge id="L26" from="2" to="6" priority="5">
        <lane id="L26_0" index="0" allow="pedestrian" speed="100.00" length="3800.00" width="2.00" shape="4200.00,3989.40 8000.00,3989.40"/>
        <lane id="L26_1" index="1" allow="moped bicycle" speed="100.00" length="3800.00" width="3.20" shape="4200.00,3992.00 8000.00,3992.00"/>
        <lane id="L26_2" index="2" disallow="pedestrian" speed="100.00" length="3800.00" width="3.20" shape="4200.00,3995.20 8000.00,3995.20"/>
        <lane id="L26_3" index="3" disallow="pedestrian" speed="100.00" length="3800.00" width="3.20" shape="4200.00,3998.40 8000.00,3998.40">
            <neigh lane="L62_3"/>
        </lane>
    </edge>
    <edge id="L31" from="3" to="1" priority="3">
        <lane id="L31_0" index="0" allow="pedestrian" speed="100.00" length="201.40" width="2.00" shape="4007.40,3785.00 4007.40,3986.40"/>
        <lane id="L31_1" index="1" allow="moped bicycle" speed="100.00" length="201.40" width="3.20" shape="4004.80,3785.00 4004.80,3986.40"/>
        <lane id="L31_2" index="2" disallow="pedestrian" speed="100.00" length="201.40" width="3.20" shape="4001.60,3785.00 4001.60,3986.40">
            <neigh lane="L13_2"/>
        </lane>
    </edge>
    <edge id="L37" from="3" to="7" priority="3">
        <lane id="L37_0" index="0" allow="pedestrian" speed="100.00" length="3785.00" width="2.00" shape="3992.60,3785.00 3992.60,0.00"/>
        <lane id="L37_1" index="1" allow="moped bicycle" speed="100.00" length="3785.00" width="3.20" shape="3995.20,3785.00 3995.20,0.00"/>
        <lane id="L37_2" index="2" disallow="pedestrian" speed="100.00" length="3785.00" width="3.20" shape="3998.40,3785.00 3998.40,0.00">
            <neigh lane="L73_2"/>
        </lane>
    </edge>
    <edge id="L41" from="4" to="1" priority="3">
        <lane id="L41_0" index="0" allow="pedestrian" speed="100.00" length="186.40" width="2.00" shape="3992.60,4200.00 3992.60,4013.60"/>
        <lane id="L41_1" index="1" allow="moped bicycle" speed="100.00" length="186.40" width="3.20" shape="3995.20,4200.00 3995.20,4013.60"/>
        <lane id="L41_2" index="2" disallow="pedestrian" speed="100.00" length="186.40" width="3.20" shape="3998.40,4200.00 3998.40,4013.60">
            <neigh lane="L14_2"/>
        </lane>
    </edge>
    <edge id="L48" from="4" to="8" priority="3">
        <lane id="L48_0" index="0" allow="pedestrian" speed="100.00" length="3800.00" width="2.00" shape="4007.40,4200.00 4007.40,8000.00"/>
        <lane id="L48_1" index="1" allow="moped bicycle" speed="100.00" length="3800.00" width="3.20" shape="4004.80,4200.00 4004.80,8000.00"/>
        <lane id="L48_2" index="2" disallow="pedestrian motorcycle moped bicycle" speed="100.00" length="3800.00" width="3.20" shape="4001.60,4200.00 4001.60,8000.00">
            <neigh lane="L84_2"/>
        </lane>
    </edge>
    <edge id="L50" from="5" to="0" priority="5">
        <lane id="L50_0" index="0" allow="pedestrian" speed="100.00" length="3800.00" width="2.00" shape="0.00,3989.40 3800.00,3989.40"/>
        <lane id="L50_1" index="1" allow="moped bicycle" speed="100.00" length="3800.00" width="3.20" shape="0.00,3992.00 3800.00,3992.00"/>
        <lane id="L50_2" index="2" disallow="pedestrian" speed="100.00" length="3800.00" width="3.20" shape="0.00,3995.20 3800.00,3995.20"/>
        <lane id="L50_3" index="3" disallow="pedestrian" speed="100.00" length="3800.00" width="3.20" shape="0.00,3998.40 3800.00,3998.40">
            <neigh lane="L05_3"/>
        </lane>
    </edge>
    <edge id="L62" from="6" to="2" priority="5">
        <lane id="L62_0" index="0" allow="pedestrian" speed="100.00" length="3800.00" width="2.00" shape="8000.00,4010.60 4200.00,4010.60"/>
        <lane id="L62_1" index="1" allow="moped bicycle" speed="100.00" length="3800.00" width="3.20" shape="8000.00,4008.00 4200.00,4008.00"/>
        <lane id="L62_2" index="2" disallow="pedestrian" speed="100.00" length="3800.00" width="3.20" shape="8000.00,4004.80 4200.00,4004.80"/>
        <lane id="L62_3" index="3" disallow="pedestrian" speed="100.00" length="3800.00" width="3.20" shape="8000.00,4001.60 4200.00,4001.60">
            <neigh lane="L26_3"/>
        </lane>
    </edge>
    <edge id="L73" from="7" to="3" priority="3">
        <lane id="L73_0" index="0" allow="pedestrian" speed="100.00" length="3785.00" width="2.00" shape="4007.40,0.00 4007.40,3785.00"/>
        <lane id="L73_1" index="1" allow="moped bicycle" speed="100.00" length="3785.00" width="3.20" shape="4004.80,0.00 4004.80,3785.00"/>
        <lane id="L73_2" index="2" disallow="pedestrian" speed="100.00" length="3785.00" width="3.20" shape="4001.60,0.00 4001.60,3785.00">
            <neigh lane="L37_2"/>
        </lane>
    </edge>
    <edge id="L84" from="8" to="4" priority="3">
        <lane id="L84_0" index="0" allow="pedestrian" speed="100.00" length="3800.00" width="2.00" shape="3992.60,8000.00 3992.60,4200.00"/>
        <lane id="L84_1" index="1" allow="moped bicycle" speed="100.00" length="3800.00" width="3.20" shape="3995.20,8000.00 3995.20,4200.00"/>
        <lane id="L84_2" index="2" disallow="pedestrian motorcycle moped bicycle" speed="100.00" length="3800.00" width="3.20" shape="3998.40,8000.00 3998.40,4200.00">
            <neigh lane="L48_2"/>
        </lane>
    </edge>

    <tlLogic id="1" type="static" programID="0" offset="0">
        <phase duration="10" state="rrrrrrGGGGGGGrrrrrrgGGgGGGGrGr"/>
        <phase duration="3"  state="rrrrrryyyyyyyrrrrrryyyyyyyrrrr"/>