<edges>
   <edge from="0" id="L01" to="1" numLanes="2" width="3.2" speed="100.0" priority="5" />
   <edge from="0" id="L05" to="5" numLanes="2" width="3.2" speed="100.0" priority="5" />
   <edge from="1" id="L10" to="0" numLanes="2" width="3.2" speed="100.0" priority="5" />
   <edge from="1" id="L12" to="2" numLanes="2" width="3.2" speed="100.0" priority="5" />
   <edge from="1" id="L13" to="3" numLanes="2" width="3.2" speed="100.0" priority="3" />
   <edge from="1" id="L14" to="4" numLanes="2" width="3.2" speed="100.0" priority="3" />
   <edge from="2" id="L21" to="1" numLanes="2" width="3.2" speed="100.0" priority="5" />
   <edge from="2" id="L26" to="6" numLanes="2" width="3.2" speed="100.0" priority="5" />
   <edge from="3" id="L31" to="1" numLanes="2" width="3.2" speed="100.0" priority="3" />
   <edge from="3" id="L37" to="7" numLanes="2" width="3.2" speed="100.0" priority="3" />
   <edge from="4" id="L41" to="1" numLanes="2" width="3.2" speed="100.0" priority="3" />
   <edge from="4" id="L48" to="8" numLanes="2" width="3.2" speed="100.0" priority="3" />
   <edge from="5" id="L50" to="0" numLanes="2" width="3.2" speed="100.0" priority="5" />
   <edge from="6" id="L62" to="2" numLanes="2" width="3.2" speed="100.0" priority="5" />
   <edge from="7" id="L73" to="3" numLanes="2" width="3.2" speed="100.0" priority="3" />
   <edge from="8" id="L84" to="4" numLanes="2" width="3.2" speed="100.0" priority="3" />
</edges>
