<nodes>
   <node id="0" x="-200.0" y="0.0" />
   <node id="1" x="0.0" y="0.0" />
   <node id="2" x="200.0" y="0.0" />
   <node id="3" x="0.0" y="-215.0" />
   <node id="4" x="0.0" y="200.0" />
   <node id="5" x="-4000.0" y="0.0" />
   <node id="6" x="4000.0" y="0.0" />
   <node id="7" x="0.0" y="-4000.0" />
   <node id="8" x="0.0" y="4000.0" />
</nodes>
