<routes>
   <vType id="truck" vClass="passenger" length="4.8" width="1.8" maxSpeed="15.0" speedFactor="1.0" speedDev="0" carFollowModel="Krauss" minGap="2.5" accel="2.6" decel="4.5" emergencyDecel="9.0" sigma="0.0" tau="1.0" color="1,0,0" laneChangModel="LC2013" lcStrategic="0" lcCooperative="0" lcSpeedGain="1.0" lcKeepRight="0" lcOvertakeRight="0" lcOpposite="1.0" lcLookaheadLeft="2.0" lcSpeedGainRight="1.0" lcAssertive="1.0" lcMaxSpeedLatFactor="1.0" lcSigma="0.0" />
<!--   <vType id="car" vClass="passenger" length="5.0" width="1.8" maxSpeed="100.0" speedFactor="1.0" speedDev="0" carFollowModel="Krauss" minGap="2.5" accel="2.6" decel="4.5" emergencyDecel="9.0" sigma="0.0" tau="1.0" laneChangModel="LC2013" lcStrategic="0" lcCooperative="0" lcSpeedGain="1.0" lcKeepRight="0" lcOvertakeRight="0" lcOpposite="1.0" lcLookaheadLeft="2.0" lcSpeedGainRight="1.0" lcAssertive="1.0" lcMaxSpeedLatFactor="1.0" lcSigma="0.0" />-->
   <vType id="pedestrians"  length="0.35" width="0.5" height="1.72"  minGap="0.25" jmCrossingGap="0" jmIgnoreFoeProb="0.8" jmIgnoreFoeSpeed="10" />
   <vType id="moped" vClass="moped"/>
   <vTypeDistribution id="newvehicledist">
        <vType id="aggressive" color="red" accel="2.6" decel="4.5" length="5.0" minGap="2.0" maxSpeed="40.0" sigma="0.9"
               carFollowModel="Krauss" probability="0.2" speedFactor="normc(1.3, 0.1, 0.2, 2)" tau="0.5" />
        <vType id="conservative" color="green" accel="2.6" decel="4.5" length="5.0" minGap="5" maxSpeed="40.0" sigma="0.3"
               carFollowModel="Krauss" probability="0.3" departSpeed="random" speedFactor="normc(0.9, 0.1, 0.2, 2)" tau="1.5"/>
        <vType id="normal" color="white" accel="2.6" decel="4.5" length="5.0" minGap="2.5" maxSpeed="40.0" sigma="0.9"
               carFollowModel="Krauss" probability="0.5" speedFactor="normc(1.0, 0.1, 0.2, 2)"/>
   </vTypeDistribution>

   <route id="route0" edges="L01 L12 L26"/>
   <route id="route1" edges="L01 L13 L37"/>
   <route id="route2" edges="L21 L10 L05"/>
   <route id="route3" edges="L41 L13 L37"/>
   <route id="route4" edges="L41 L10 L05"/>
   <route id="route5" edges="L31 L10 L05"/>
   <route id="route6" edges="L31 L12 L26"/>
   
   <route id="route7" edges="L21 L14 L48"/>
   <route id="route8" edges="L41 L12 L26"/>
   <route id="route9" edges="L31 L14 L48"/>

   <route id="route10" edges="L01 L10 L05"/>
   <route id="route11" edges="L41 L14 L48"/>
   <route id="route12" edges="L21 L12 L26"/>
</routes>
